Version 4
SHEET 1 900 680
WIRE 16 64 -16 64
WIRE 112 64 96 64
WIRE 208 64 112 64
WIRE 448 64 288 64
WIRE -16 96 -16 64
WIRE 112 128 112 64
WIRE 176 128 112 128
WIRE 448 144 448 64
WIRE 448 144 240 144
WIRE 480 144 448 144
WIRE 176 160 112 160
WIRE -96 192 -96 176
WIRE -96 192 -208 192
WIRE -208 208 -208 192
WIRE -96 208 -96 192
WIRE 112 224 112 160
WIRE 176 224 112 224
WIRE 272 224 240 224
WIRE 304 224 272 224
WIRE 448 224 448 144
WIRE 448 224 384 224
FLAG -16 96 0
FLAG 480 144 Vout
FLAG -208 208 0
FLAG -96 96 Vcc
FLAG 208 112 Vcc
FLAG -96 288 -Vcc
FLAG 208 176 -Vcc
FLAG 112 304 0
FLAG 272 288 0
SYMBOL res 112 48 R90
WINDOW 0 0 56 VBottom 2
WINDOW 3 32 56 VTop 2
SYMATTR InstName R1
SYMATTR Value 1k
SYMBOL res 304 48 R90
WINDOW 0 0 56 VBottom 2
WINDOW 3 32 56 VTop 2
SYMATTR InstName R2
SYMATTR Value 2030
SYMBOL voltage -96 80 R0
WINDOW 123 0 0 Left 2
WINDOW 39 0 0 Left 2
SYMATTR InstName V1
SYMATTR Value 15
SYMBOL voltage -96 192 R0
WINDOW 123 0 0 Left 2
WINDOW 39 0 0 Left 2
SYMATTR InstName V2
SYMATTR Value 15
SYMBOL Opamps\\opamp2 208 80 R0
SYMATTR InstName U1
SYMATTR Value LM741/NS
SYMBOL res 96 208 R0
SYMATTR InstName R3
SYMATTR Value 250
SYMBOL res 400 208 R90
WINDOW 0 0 56 VBottom 2
WINDOW 3 32 56 VTop 2
SYMATTR InstName R4
SYMATTR Value 250
SYMBOL cap 256 224 R0
SYMATTR InstName C1
SYMATTR Value 1m
SYMBOL cap 240 208 R90
WINDOW 0 0 32 VBottom 2
WINDOW 3 32 32 VTop 2
SYMATTR InstName C2
SYMATTR Value 1m
TEXT 40 384 Left 2 !.include C:\\Users\\Ayush\\Desktop\\LM741.MOD
TEXT 584 344 Left 2 !.tran 0 160 1 3 startup
