Version 4
SHEET 1 880 680
WIRE 64 -48 -48 -48
WIRE 336 -48 144 -48
WIRE 768 0 768 -64
WIRE -224 112 -288 112
WIRE -48 112 -48 -48
WIRE -48 112 -144 112
WIRE 64 112 -48 112
WIRE 768 128 768 80
WIRE 64 144 0 144
WIRE 336 160 336 -48
WIRE 336 160 144 160
WIRE 768 160 768 128
WIRE 768 288 768 240
WIRE -304 320 -336 320
WIRE -144 320 -224 320
WIRE 0 320 0 144
WIRE 0 320 -64 320
WIRE 112 320 0 320
WIRE 336 320 336 160
WIRE 336 320 192 320
WIRE 0 416 0 320
WIRE 0 528 0 480
FLAG 768 128 0
FLAG -288 112 0
FLAG 0 528 0
FLAG 768 -64 Vcc
FLAG 144 96 Vcc
FLAG 768 288 -Vcc
FLAG 144 128 -Vcc
FLAG -336 320 0
FLAG 336 160 Vout
SYMBOL AutoGenerated\\LM741_NS 96 128 R0
SYMATTR InstName U1
SYMBOL res -128 96 R90
WINDOW 0 0 56 VBottom 2
WINDOW 3 32 56 VTop 2
SYMATTR InstName R1
SYMATTR Value 2000
SYMBOL res 160 -64 R90
WINDOW 0 0 56 VBottom 2
WINDOW 3 32 56 VTop 2
SYMATTR InstName R2
SYMATTR Value 2000
SYMBOL res -48 304 R90
WINDOW 0 0 56 VBottom 2
WINDOW 3 32 56 VTop 2
SYMATTR InstName R3
SYMATTR Value 2000
SYMBOL res 208 304 R90
WINDOW 0 0 56 VBottom 2
WINDOW 3 32 56 VTop 2
SYMATTR InstName R4
SYMATTR Value 909
SYMBOL cap -16 416 R0
SYMATTR InstName C1
SYMATTR Value 0.001
SYMBOL voltage 768 -16 R0
WINDOW 123 0 0 Left 0
WINDOW 39 0 0 Left 0
SYMATTR InstName V1
SYMATTR Value 15
SYMBOL voltage 768 144 R0
WINDOW 123 0 0 Left 0
WINDOW 39 0 0 Left 0
SYMATTR InstName V2
SYMATTR Value 15
SYMBOL voltage -208 320 R90
WINDOW 0 -32 56 VBottom 2
WINDOW 3 32 56 VTop 2
WINDOW 123 0 0 Left 0
WINDOW 39 0 0 Left 0
SYMATTR InstName V3
SYMATTR Value SINE(0 1 0.159)
TEXT -356 552 Left 2 !.tran 0 150 0 0.01
